
OS:Version,
  {80878e17-8eaf-46cc-8814-d7c6b1ee3ea2}, !- Handle
  3.5.1;                                  !- Version Identifier

OS:SimulationControl,
  {674fa0e0-d548-47fd-876a-603da96f6862}, !- Handle
  Yes,                                    !- Do Zone Sizing Calculation
  Yes,                                    !- Do System Sizing Calculation
  ,                                       !- Do Plant Sizing Calculation
  No,                                     !- Run Simulation for Sizing Periods
  Yes;                                    !- Run Simulation for Weather File Run Periods

OS:Timestep,
  {ed9a70d3-335a-4e66-b508-b636371fffd8}, !- Handle
  6;                                      !- Number of Timesteps per Hour

OS:RunPeriod,
  {9ef9532d-dfdf-4b1c-afa5-cddc5cacaf41}, !- Handle
  Run Period 1,                           !- Name
  1,                                      !- Begin Month
  1,                                      !- Begin Day of Month
  12,                                     !- End Month
  31,                                     !- End Day of Month
  No,                                     !- Use Weather File Holidays and Special Days
  No,                                     !- Use Weather File Daylight Saving Period
  No,                                     !- Apply Weekend Holiday Rule
  Yes,                                    !- Use Weather File Rain Indicators
  Yes,                                    !- Use Weather File Snow Indicators
  1;                                      !- Number of Times Runperiod to be Repeated

OS:SurfaceConvectionAlgorithm:Inside,
  {cfbe206b-f581-438b-b6ed-5c3b9b2495c0}, !- Handle
  TARP;                                   !- Algorithm

OS:SurfaceConvectionAlgorithm:Outside,
  {f61203fb-daa7-45df-b020-654add93fbc3}, !- Handle
  DOE-2;                                  !- Algorithm

OS:HeatBalanceAlgorithm,
  {f1810ef4-98b7-42a8-b357-d00ce5f4cd62}, !- Handle
  ConductionTransferFunction,             !- Algorithm
  200;                                    !- Surface Temperature Upper Limit {C}

OS:ZoneAirHeatBalanceAlgorithm,
  {75e273ed-11db-44b7-9137-23b409a783a4}, !- Handle
  ThirdOrderBackwardDifference;           !- Algorithm

OS:ConvergenceLimits,
  {aeef6076-bd0e-4d1b-9f3f-2204429b4ea5}, !- Handle
  1;                                      !- Minimum System Timestep {minutes}

OS:ShadowCalculation,
  {d84bc506-bca7-495a-b8f7-1f8d0daa01c0}, !- Handle
  PolygonClipping,                        !- Shading Calculation Method
  ,                                       !- Shading Calculation Update Frequency Method
  20,                                     !- Shading Calculation Update Frequency
  15000,                                  !- Maximum Figures in Shadow Overlap Calculations
  ,                                       !- Polygon Clipping Algorithm
  512,                                    !- Pixel Counting Resolution
  ,                                       !- Sky Diffuse Modeling Algorithm
  No,                                     !- Output External Shading Calculation Results
  No,                                     !- Disable Self-Shading Within Shading Zone Groups
  No;                                     !- Disable Self-Shading From Shading Zone Groups to Other Zones

OS:Site,
  {73425c9b-a7ed-4fd1-9e60-8ab7fbd47a2f}, !- Handle
  Site 1,                                 !- Name
  41.77,                                  !- Latitude {deg}
  -87.75,                                 !- Longitude {deg}
  -6,                                     !- Time Zone {hr}
  190,                                    !- Elevation {m}
  ;                                       !- Terrain

OS:Site:GroundTemperature:BuildingSurface,
  {263ee070-638d-4266-ba16-d4ececca70e6}, !- Handle
  19.527,                                 !- January Ground Temperature {C}
  19.502,                                 !- February Ground Temperature {C}
  19.536,                                 !- March Ground Temperature {C}
  19.598,                                 !- April Ground Temperature {C}
  20.002,                                 !- May Ground Temperature {C}
  21.64,                                  !- June Ground Temperature {C}
  22.225,                                 !- July Ground Temperature {C}
  22.375,                                 !- August Ground Temperature {C}
  21.449,                                 !- September Ground Temperature {C}
  20.121,                                 !- October Ground Temperature {C}
  19.802,                                 !- November Ground Temperature {C}
  19.633;                                 !- December Ground Temperature {C}

OS:Site:GroundTemperature:Deep,
  {dd4e2420-72ac-4212-93d7-661f40ada94c}, !- Handle
  19.527,                                 !- January Deep Ground Temperature {C}
  19.502,                                 !- February Deep Ground Temperature {C}
  19.536,                                 !- March Deep Ground Temperature {C}
  19.598,                                 !- April Deep Ground Temperature {C}
  20.002,                                 !- May Deep Ground Temperature {C}
  21.64,                                  !- June Deep Ground Temperature {C}
  22.225,                                 !- July Deep Ground Temperature {C}
  22.375,                                 !- August Deep Ground Temperature {C}
  21.449,                                 !- September Deep Ground Temperature {C}
  20.121,                                 !- October Deep Ground Temperature {C}
  19.802,                                 !- November Deep Ground Temperature {C}
  19.633;                                 !- December Deep Ground Temperature {C}

OS:Site:WaterMainsTemperature,
  {7e0a9f92-8b2d-4b4b-8b56-7df3d6dd17d8}, !- Handle
  Correlation,                            !- Calculation Method
  ,                                       !- Temperature Schedule Name
  9.69,                                   !- Annual Average Outdoor Air Temperature {C}
  28.1;                                   !- Maximum Difference In Monthly Average Outdoor Air Temperatures {deltaC}

OS:SizingPeriod:DesignDay,
  {ac90ba15-0825-480c-a9d9-564a93cf0601}, !- Handle
  Sizing Period Design Day 1,             !- Name
  -20.6,                                  !- Maximum Dry-Bulb Temperature {C}
  0,                                      !- Daily Dry-Bulb Temperature Range {deltaC}
  99063,                                  !- Barometric Pressure {Pa}
  4.9,                                    !- Wind Speed {m/s}
  270,                                    !- Wind Direction {deg}
  0,                                      !- Sky Clearness
  No,                                     !- Rain Indicator
  No,                                     !- Snow Indicator
  21,                                     !- Day of Month
  1,                                      !- Month
  WinterDesignDay,                        !- Day Type
  No,                                     !- Daylight Saving Time Indicator
  WetBulb,                                !- Humidity Condition Type
  ,                                       !- Humidity Condition Day Schedule Name
  -20.6,                                  !- Wetbulb or DewPoint at Maximum Dry-Bulb {C}
  ,                                       !- Humidity Ratio at Maximum Dry-Bulb {kgWater/kgDryAir}
  ,                                       !- Enthalpy at Maximum Dry-Bulb {J/kg}
  ;                                       !- Dry-Bulb Temperature Range Modifier Type

OS:SizingPeriod:DesignDay,
  {0ec851d1-091e-4cb8-aab3-ffb9fccbff08}, !- Handle
  Sizing Period Design Day 2,             !- Name
  33.2,                                   !- Maximum Dry-Bulb Temperature {C}
  10.7,                                   !- Daily Dry-Bulb Temperature Range {deltaC}
  99063,                                  !- Barometric Pressure {Pa}
  5.3,                                    !- Wind Speed {m/s}
  230,                                    !- Wind Direction {deg}
  1,                                      !- Sky Clearness
  No,                                     !- Rain Indicator
  No,                                     !- Snow Indicator
  21,                                     !- Day of Month
  7,                                      !- Month
  SummerDesignDay,                        !- Day Type
  No,                                     !- Daylight Saving Time Indicator
  WetBulb,                                !- Humidity Condition Type
  ,                                       !- Humidity Condition Day Schedule Name
  23.8,                                   !- Wetbulb or DewPoint at Maximum Dry-Bulb {C}
  ,                                       !- Humidity Ratio at Maximum Dry-Bulb {kgWater/kgDryAir}
  ,                                       !- Enthalpy at Maximum Dry-Bulb {J/kg}
  ;                                       !- Dry-Bulb Temperature Range Modifier Type

OS:ScheduleTypeLimits,
  {caf848e6-b17c-428d-ab0e-0e37b3b42580}, !- Handle
  Temperature,                            !- Name
  -60,                                    !- Lower Limit Value
  200,                                    !- Upper Limit Value
  CONTINUOUS,                             !- Numeric Type
  Temperature;                            !- Unit Type

OS:DefaultScheduleSet,
  {70ac36df-92f2-42ab-b167-b856bf4cf4c9}, !- Handle
  Default Schedules,                      !- Name
  ,                                       !- Hours of Operation Schedule Name
  {db2f8add-88d7-40a7-a465-c6ca59c426dd}, !- Number of People Schedule Name
  {edf5af25-de94-4462-b2c8-f4bbba31c9cb}, !- People Activity Level Schedule Name
  {37c97072-5d62-47b9-b809-0f462b09112f}, !- Lighting Schedule Name
  {3317d504-9706-409b-a83a-b90bde8f425a}, !- Electric Equipment Schedule Name
  {44656d16-0361-4761-b887-8f611f27c9b0}, !- Gas Equipment Schedule Name
  {c0d68975-ea04-4d9c-a13e-14c57ec39237}, !- Hot Water Equipment Schedule Name
  {2a0f544e-de9b-4919-8c42-cbeb4001790d}, !- Infiltration Schedule Name
  ,                                       !- Steam Equipment Schedule Name
  ;                                       !- Other Equipment Schedule Name

OS:Schedule:Ruleset,
  {db2f8add-88d7-40a7-a465-c6ca59c426dd}, !- Handle
  Medium Office Number of People Schedule, !- Name
  {e9927310-39c0-405f-8017-a06b5e4e9e03}, !- Schedule Type Limits Name
  {b907bb02-b772-42e2-8c2e-d3b1ed672b60}, !- Default Day Schedule Name
  {21dd8412-62f1-4a48-9ffc-88c2b9091c47}; !- Summer Design Day Schedule Name

OS:Schedule:Day,
  {b907bb02-b772-42e2-8c2e-d3b1ed672b60}, !- Handle
  Medium Office Number of People All Other Days Schedule, !- Name
  {e9927310-39c0-405f-8017-a06b5e4e9e03}, !- Schedule Type Limits Name
  ,                                       !- Interpolate to Timestep
  24,                                     !- Hour 1
  0,                                      !- Minute 1
  0;                                      !- Value Until Time 1

OS:Schedule:Day,
  {7dbd9144-e89a-4da3-8f7f-cae1097b89f9}, !- Handle
  Medium Office Number of People Summer Design Day Schedule, !- Name
  ,                                       !- Schedule Type Limits Name
  ,                                       !- Interpolate to Timestep
  6,                                      !- Hour 1
  0,                                      !- Minute 1
  0,                                      !- Value Until Time 1
  22,                                     !- Hour 2
  0,                                      !- Minute 2
  1,                                      !- Value Until Time 2
  24,                                     !- Hour 3
  0,                                      !- Minute 3
  0.05;                                   !- Value Until Time 3

OS:Schedule:Day,
  {21dd8412-62f1-4a48-9ffc-88c2b9091c47}, !- Handle
  Medium Office Number of People Summer Design Day Schedule 1, !- Name
  {e9927310-39c0-405f-8017-a06b5e4e9e03}, !- Schedule Type Limits Name
  ,                                       !- Interpolate to Timestep
  6,                                      !- Hour 1
  0,                                      !- Minute 1
  0,                                      !- Value Until Time 1
  22,                                     !- Hour 2
  0,                                      !- Minute 2
  1,                                      !- Value Until Time 2
  24,                                     !- Hour 3
  0,                                      !- Minute 3
  0.05;                                   !- Value Until Time 3

OS:Schedule:Rule,
  {d6146b30-a09c-4b58-8205-5a7ad834e3a5}, !- Handle
  Medium Office Number of People Schedule Weekdays Rule, !- Name
  {db2f8add-88d7-40a7-a465-c6ca59c426dd}, !- Schedule Ruleset Name
  1,                                      !- Rule Order
  {a9f3cd61-c71a-4356-8385-d5aa72ec1b1a}, !- Day Schedule Name
  ,                                       !- Apply Sunday
  Yes,                                    !- Apply Monday
  Yes,                                    !- Apply Tuesday
  Yes,                                    !- Apply Wednesday
  Yes,                                    !- Apply Thursday
  Yes;                                    !- Apply Friday

OS:Schedule:Day,
  {a9f3cd61-c71a-4356-8385-d5aa72ec1b1a}, !- Handle
  Medium Office Number of People Weekdays Schedule, !- Name
  {e9927310-39c0-405f-8017-a06b5e4e9e03}, !- Schedule Type Limits Name
  ,                                       !- Interpolate to Timestep
  6,                                      !- Hour 1
  0,                                      !- Minute 1
  0,                                      !- Value Until Time 1
  7,                                      !- Hour 2
  0,                                      !- Minute 2
  0.1,                                    !- Value Until Time 2
  8,                                      !- Hour 3
  0,                                      !- Minute 3
  0.2,                                    !- Value Until Time 3
  12,                                     !- Hour 4
  0,                                      !- Minute 4
  0.95,                                   !- Value Until Time 4
  13,                                     !- Hour 5
  0,                                      !- Minute 5
  0.5,                                    !- Value Until Time 5
  17,                                     !- Hour 6
  0,                                      !- Minute 6
  0.95,                                   !- Value Until Time 6
  18,                                     !- Hour 7
  0,                                      !- Minute 7
  0.7,                                    !- Value Until Time 7
  20,                                     !- Hour 8
  0,                                      !- Minute 8
  0.4,                                    !- Value Until Time 8
  22,                                     !- Hour 9
  0,                                      !- Minute 9
  0.1,                                    !- Value Until Time 9
  24,                                     !- Hour 10
  0,                                      !- Minute 10
  0.05;                                   !- Value Until Time 10

OS:Schedule:Rule,
  {80958ab4-3726-42f2-8868-9bc45138ae8b}, !- Handle
  Medium Office Number of People Schedule Saturday Rule, !- Name
  {db2f8add-88d7-40a7-a465-c6ca59c426dd}, !- Schedule Ruleset Name
  0,                                      !- Rule Order
  {59652df6-570e-4dc6-9202-a0a44665d4f9}, !- Day Schedule Name
  ,                                       !- Apply Sunday
  ,                                       !- Apply Monday
  ,                                       !- Apply Tuesday
  ,                                       !- Apply Wednesday
  ,                                       !- Apply Thursday
  ,                                       !- Apply Friday
  Yes;                                    !- Apply Saturday

OS:Schedule:Day,
  {59652df6-570e-4dc6-9202-a0a44665d4f9}, !- Handle
  Medium Office Number of People Saturday Schedule, !- Name
  {e9927310-39c0-405f-8017-a06b5e4e9e03}, !- Schedule Type Limits Name
  ,                                       !- Interpolate to Timestep
  6,                                      !- Hour 1
  0,                                      !- Minute 1
  0,                                      !- Value Until Time 1
  8,                                      !- Hour 2
  0,                                      !- Minute 2
  0.1,                                    !- Value Until Time 2
  14,                                     !- Hour 3
  0,                                      !- Minute 3
  0.5,                                    !- Value Until Time 3
  17,                                     !- Hour 4
  0,                                      !- Minute 4
  0.1,                                    !- Value Until Time 4
  24,                                     !- Hour 5
  0,                                      !- Minute 5
  0;                                      !- Value Until Time 5

OS:ScheduleTypeLimits,
  {e9927310-39c0-405f-8017-a06b5e4e9e03}, !- Handle
  Fractional,                             !- Name
  0,                                      !- Lower Limit Value
  1,                                      !- Upper Limit Value
  Continuous;                             !- Numeric Type

OS:Schedule:Ruleset,
  {edf5af25-de94-4462-b2c8-f4bbba31c9cb}, !- Handle
  Medium Office People Activity Level Schedule, !- Name
  {ccdc5d86-6b8e-4d22-9fdb-e957206434fb}, !- Schedule Type Limits Name
  {32625770-1399-4aca-af0d-2bad5bbe221c}; !- Default Day Schedule Name

OS:Schedule:Day,
  {32625770-1399-4aca-af0d-2bad5bbe221c}, !- Handle
  Medium Office People Activity Level All Days Schedule, !- Name
  {ccdc5d86-6b8e-4d22-9fdb-e957206434fb}, !- Schedule Type Limits Name
  ,                                       !- Interpolate to Timestep
  24,                                     !- Hour 1
  0,                                      !- Minute 1
  120;                                    !- Value Until Time 1

OS:ScheduleTypeLimits,
  {ccdc5d86-6b8e-4d22-9fdb-e957206434fb}, !- Handle
  ActivityLevel,                          !- Name
  0,                                      !- Lower Limit Value
  ,                                       !- Upper Limit Value
  Continuous,                             !- Numeric Type
  ActivityLevel;                          !- Unit Type

OS:Schedule:Ruleset,
  {37c97072-5d62-47b9-b809-0f462b09112f}, !- Handle
  Medium Office Lighting Schedule,        !- Name
  {e9927310-39c0-405f-8017-a06b5e4e9e03}, !- Schedule Type Limits Name
  {ac72ed5f-bd4b-4825-b22e-3f6a41a60bdb}, !- Default Day Schedule Name
  {1abf1039-8770-48a5-bad8-44b71add86e6}, !- Summer Design Day Schedule Name
  {ad7f7220-4e26-48c8-b75a-51ec8657efb5}; !- Winter Design Day Schedule Name

OS:Schedule:Day,
  {ac72ed5f-bd4b-4825-b22e-3f6a41a60bdb}, !- Handle
  Medium Office Lighting All Other Days Schedule, !- Name
  {e9927310-39c0-405f-8017-a06b5e4e9e03}, !- Schedule Type Limits Name
  ,                                       !- Interpolate to Timestep
  24,                                     !- Hour 1
  0,                                      !- Minute 1
  0.05;                                   !- Value Until Time 1

OS:Schedule:Day,
  {4b4321d9-fe97-4b21-a70d-9a316e8685e9}, !- Handle
  Medium Office Lighting Summer Design Day Schedule, !- Name
  ,                                       !- Schedule Type Limits Name
  ,                                       !- Interpolate to Timestep
  6,                                      !- Hour 1
  0,                                      !- Minute 1
  1,                                      !- Value Until Time 1
  24,                                     !- Hour 2
  0,                                      !- Minute 2
  0;                                      !- Value Until Time 2

OS:Schedule:Day,
  {1abf1039-8770-48a5-bad8-44b71add86e6}, !- Handle
  Medium Office Lighting Summer Design Day Schedule 1, !- Name
  {e9927310-39c0-405f-8017-a06b5e4e9e03}, !- Schedule Type Limits Name
  ,                                       !- Interpolate to Timestep
  6,                                      !- Hour 1
  0,                                      !- Minute 1
  1,                                      !- Value Until Time 1
  24,                                     !- Hour 2
  0,                                      !- Minute 2
  0;                                      !- Value Until Time 2

OS:Schedule:Day,
  {a420c382-21de-4d0a-9251-7f25cf5c71d1}, !- Handle
  Medium Office Lighting Winter Design Day Schedule, !- Name
  ,                                       !- Schedule Type Limits Name
  ,                                       !- Interpolate to Timestep
  24,                                     !- Hour 1
  0,                                      !- Minute 1
  0;                                      !- Value Until Time 1

OS:Schedule:Day,
  {ad7f7220-4e26-48c8-b75a-51ec8657efb5}, !- Handle
  Medium Office Lighting Winter Design Day Schedule 1, !- Name
  {e9927310-39c0-405f-8017-a06b5e4e9e03}, !- Schedule Type Limits Name
  ,                                       !- Interpolate to Timestep
  24,                                     !- Hour 1
  0,                                      !- Minute 1
  0;                                      !- Value Until Time 1

OS:Schedule:Rule,
  {6fcd47f5-2f78-4825-b48a-b00aef4f495a}, !- Handle
  Medium Office Lighting Schedule Weekdays Rule, !- Name
  {37c97072-5d62-47b9-b809-0f462b09112f}, !- Schedule Ruleset Name
  1,                                      !- Rule Order
  {7da44421-54d9-42d8-83a9-79b5984d9b63}, !- Day Schedule Name
  ,                                       !- Apply Sunday
  Yes,                                    !- Apply Monday
  Yes,                                    !- Apply Tuesday
  Yes,                                    !- Apply Wednesday
  Yes,                                    !- Apply Thursday
  Yes;                                    !- Apply Friday

OS:Schedule:Day,
  {7da44421-54d9-42d8-83a9-79b5984d9b63}, !- Handle
  Medium Office Lighting Weekdays Schedule, !- Name
  {e9927310-39c0-405f-8017-a06b5e4e9e03}, !- Schedule Type Limits Name
  ,                                       !- Interpolate to Timestep
  5,                                      !- Hour 1
  0,                                      !- Minute 1
  0.05,                                   !- Value Until Time 1
  7,                                      !- Hour 2
  0,                                      !- Minute 2
  0.1,                                    !- Value Until Time 2
  8,                                      !- Hour 3
  0,                                      !- Minute 3
  0.3,                                    !- Value Until Time 3
  17,                                     !- Hour 4
  0,                                      !- Minute 4
  0.9,                                    !- Value Until Time 4
  18,                                     !- Hour 5
  0,                                      !- Minute 5
  0.7,                                    !- Value Until Time 5
  20,                                     !- Hour 6
  0,                                      !- Minute 6
  0.5,                                    !- Value Until Time 6
  22,                                     !- Hour 7
  0,                                      !- Minute 7
  0.3,                                    !- Value Until Time 7
  23,                                     !- Hour 8
  0,                                      !- Minute 8
  0.1,                                    !- Value Until Time 8
  24,                                     !- Hour 9
  0,                                      !- Minute 9
  0.05;                                   !- Value Until Time 9

OS:Schedule:Rule,
  {d598f7c0-03b7-42ae-a069-9521b9845d4a}, !- Handle
  Medium Office Lighting Schedule Saturday Rule, !- Name
  {37c97072-5d62-47b9-b809-0f462b09112f}, !- Schedule Ruleset Name
  0,                                      !- Rule Order
  {0e8d34ea-0e35-418b-8486-5702b652a24f}, !- Day Schedule Name
  ,                                       !- Apply Sunday
  ,                                       !- Apply Monday
  ,                                       !- Apply Tuesday
  ,                                       !- Apply Wednesday
  ,                                       !- Apply Thursday
  ,                                       !- Apply Friday
  Yes;                                    !- Apply Saturday

OS:Schedule:Day,
  {0e8d34ea-0e35-418b-8486-5702b652a24f}, !- Handle
  Medium Office Lighting Saturday Schedule, !- Name
  {e9927310-39c0-405f-8017-a06b5e4e9e03}, !- Schedule Type Limits Name
  ,                                       !- Interpolate to Timestep
  6,                                      !- Hour 1
  0,                                      !- Minute 1
  0.05,                                   !- Value Until Time 1
  8,                                      !- Hour 2
  0,                                      !- Minute 2
  0.1,                                    !- Value Until Time 2
  14,                                     !- Hour 3
  0,                                      !- Minute 3
  0.5,                                    !- Value Until Time 3
  17,                                     !- Hour 4
  0,                                      !- Minute 4
  0.15,                                   !- Value Until Time 4
  24,                                     !- Hour 5
  0,                                      !- Minute 5
  0.05;                                   !- Value Until Time 5

OS:Schedule:Ruleset,
  {3317d504-9706-409b-a83a-b90bde8f425a}, !- Handle
  Medium Office Electric Equipment Schedule, !- Name
  {e9927310-39c0-405f-8017-a06b5e4e9e03}, !- Schedule Type Limits Name
  {45eeaa20-2b00-48d6-9401-4b6764e8cb7e}, !- Default Day Schedule Name
  {f9a2b4fe-fae1-47f3-b836-589a859356cf}, !- Summer Design Day Schedule Name
  {11f9e484-a733-4836-927f-e363f7cc284f}; !- Winter Design Day Schedule Name

OS:Schedule:Day,
  {45eeaa20-2b00-48d6-9401-4b6764e8cb7e}, !- Handle
  Medium Office Electric Equipment All Other Days Schedule, !- Name
  {e9927310-39c0-405f-8017-a06b5e4e9e03}, !- Schedule Type Limits Name
  ,                                       !- Interpolate to Timestep
  24,                                     !- Hour 1
  0,                                      !- Minute 1
  0.3;                                    !- Value Until Time 1

OS:Schedule:Day,
  {770cec63-cfb8-4a67-9d86-44812cbefce3}, !- Handle
  Medium Office Electric Equipment Summer Design Day Schedule, !- Name
  ,                                       !- Schedule Type Limits Name
  ,                                       !- Interpolate to Timestep
  6,                                      !- Hour 1
  0,                                      !- Minute 1
  1,                                      !- Value Until Time 1
  24,                                     !- Hour 2
  0,                                      !- Minute 2
  0;                                      !- Value Until Time 2

OS:Schedule:Day,
  {f9a2b4fe-fae1-47f3-b836-589a859356cf}, !- Handle
  Medium Office Electric Equipment Summer Design Day Schedule 1, !- Name
  {e9927310-39c0-405f-8017-a06b5e4e9e03}, !- Schedule Type Limits Name
  ,                                       !- Interpolate to Timestep
  6,                                      !- Hour 1
  0,                                      !- Minute 1
  1,                                      !- Value Until Time 1
  24,                                     !- Hour 2
  0,                                      !- Minute 2
  0;                                      !- Value Until Time 2

OS:Schedule:Day,
  {8ed7b805-6c50-46ae-9d35-4ff300fa879e}, !- Handle
  Medium Office Electric Equipment Winter Design Day Schedule, !- Name
  ,                                       !- Schedule Type Limits Name
  ,                                       !- Interpolate to Timestep
  24,                                     !- Hour 1
  0,                                      !- Minute 1
  0;                                      !- Value Until Time 1

OS:Schedule:Day,
  {11f9e484-a733-4836-927f-e363f7cc284f}, !- Handle
  Medium Office Electric Equipment Winter Design Day Schedule 1, !- Name
  {e9927310-39c0-405f-8017-a06b5e4e9e03}, !- Schedule Type Limits Name
  ,                                       !- Interpolate to Timestep
  24,                                     !- Hour 1
  0,                                      !- Minute 1
  0;                                      !- Value Until Time 1

OS:Schedule:Rule,
  {16ec72cd-2b91-4e11-895f-048831f363d6}, !- Handle
  Medium Office Electric Equipment Schedule Weekdays Rule, !- Name
  {3317d504-9706-409b-a83a-b90bde8f425a}, !- Schedule Ruleset Name
  1,                                      !- Rule Order
  {c0fb09b0-607f-44f7-8926-9fd3034b0c44}, !- Day Schedule Name
  ,                                       !- Apply Sunday
  Yes,                                    !- Apply Monday
  Yes,                                    !- Apply Tuesday
  Yes,                                    !- Apply Wednesday
  Yes,                                    !- Apply Thursday
  Yes;                                    !- Apply Friday

OS:Schedule:Day,
  {c0fb09b0-607f-44f7-8926-9fd3034b0c44}, !- Handle
  Medium Office Electric Equipment Weekdays Schedule, !- Name
  {e9927310-39c0-405f-8017-a06b5e4e9e03}, !- Schedule Type Limits Name
  ,                                       !- Interpolate to Timestep
  8,                                      !- Hour 1
  0,                                      !- Minute 1
  0.4,                                    !- Value Until Time 1
  12,                                     !- Hour 2