
OS:Version,
  {f354b14c-17e8-409f-95b0-7431e5156b81}, !- Handle
  3.6.1;                                  !- Version Identifier

OS:SimulationControl,
  {7db49ee4-c266-4616-93e8-ab9215dd4842}, !- Handle
  Yes,                                    !- Do Zone Sizing Calculation
  Yes,                                    !- Do System Sizing Calculation
  ,                                       !- Do Plant Sizing Calculation
  No,                                     !- Run Simulation for Sizing Periods
  Yes;                                    !- Run Simulation for Weather File Run Periods

OS:Timestep,
  {ebc65097-dabf-43b5-afcf-48a6f2e5ee52}, !- Handle
  6;                                      !- Number of Timesteps per Hour

OS:RunPeriod,
  {c16da46e-5685-49a3-9a38-e249603e319e}, !- Handle
  Run Period 1,                           !- Name
  1,                                      !- Begin Month
  1,                                      !- Begin Day of Month
  12,                                     !- End Month
  31,                                     !- End Day of Month
  No,                                     !- Use Weather File Holidays and Special Days
  No,                                     !- Use Weather File Daylight Saving Period
  No,                                     !- Apply Weekend Holiday Rule
  Yes,                                    !- Use Weather File Rain Indicators
  Yes,                                    !- Use Weather File Snow Indicators
  1;                                      !- Number of Times Runperiod to be Repeated

OS:SurfaceConvectionAlgorithm:Inside,
  {31054922-9ffc-4fe9-8063-3a1f3e6d550d}, !- Handle
  TARP;                                   !- Algorithm

OS:SurfaceConvectionAlgorithm:Outside,
  {e8a3fed2-6d5d-49a9-bde2-5ffb8573ab4f}, !- Handle
  DOE-2;                                  !- Algorithm

OS:HeatBalanceAlgorithm,
  {d781e0ad-b0c4-4616-81af-08bdc9528ec8}, !- Handle
  ConductionTransferFunction,             !- Algorithm
  200;                                    !- Surface Temperature Upper Limit {C}

OS:ZoneAirHeatBalanceAlgorithm,
  {91187dae-c81d-4f6f-9303-926657ae055e}, !- Handle
  ,                                       !- Algorithm
  ,                                       !- Do Space Heat Balance for Sizing
  ;                                       !- Do Space Heat Balance for Simulation

OS:ConvergenceLimits,
  {2a2a519a-85b0-451c-b8e6-459c5a6cf09f}, !- Handle
  1;                                      !- Minimum System Timestep {minutes}

OS:ShadowCalculation,
  {84a69a8f-19c9-4976-a176-93ae4604b087}, !- Handle
  PolygonClipping,                        !- Shading Calculation Method
  ,                                       !- Shading Calculation Update Frequency Method
  20,                                     !- Shading Calculation Update Frequency
  15000,                                  !- Maximum Figures in Shadow Overlap Calculations
  ,                                       !- Polygon Clipping Algorithm
  512,                                    !- Pixel Counting Resolution
  ,                                       !- Sky Diffuse Modeling Algorithm
  No,                                     !- Output External Shading Calculation Results
  No,                                     !- Disable Self-Shading Within Shading Zone Groups
  No;                                     !- Disable Self-Shading From Shading Zone Groups to Other Zones

OS:Site,
  {407ea120-a69e-4010-9d0f-224576da426f}, !- Handle
  Site 1,                                 !- Name
  41.77,                                  !- Latitude {deg}
  -87.75,                                 !- Longitude {deg}
  -6,                                     !- Time Zone {hr}
  190,                                    !- Elevation {m}
  ;                                       !- Terrain

OS:Site:GroundTemperature:BuildingSurface,
  {5022caea-e51f-427e-83fb-d482a625aa19}, !- Handle
  19.527,                                 !- January Ground Temperature {C}
  19.502,                                 !- February Ground Temperature {C}
  19.536,                                 !- March Ground Temperature {C}
  19.598,                                 !- April Ground Temperature {C}
  20.002,                                 !- May Ground Temperature {C}
  21.64,                                  !- June Ground Temperature {C}
  22.225,                                 !- July Ground Temperature {C}
  22.375,                                 !- August Ground Temperature {C}
  21.449,                                 !- September Ground Temperature {C}
  20.121,                                 !- October Ground Temperature {C}
  19.802,                                 !- November Ground Temperature {C}
  19.633;                                 !- December Ground Temperature {C}

OS:Site:GroundTemperature:Deep,
  {a75daa2c-eded-4ee9-96d8-e36ca8cddc41}, !- Handle
  19.527,                                 !- January Deep Ground Temperature {C}
  19.502,                                 !- February Deep Ground Temperature {C}
  19.536,                                 !- March Deep Ground Temperature {C}
  19.598,                                 !- April Deep Ground Temperature {C}
  20.002,                                 !- May Deep Ground Temperature {C}
  21.64,                                  !- June Deep Ground Temperature {C}
  22.225,                                 !- July Deep Ground Temperature {C}
  22.375,                                 !- August Deep Ground Temperature {C}
  21.449,                                 !- September Deep Ground Temperature {C}
  20.121,                                 !- October Deep Ground Temperature {C}
  19.802,                                 !- November Deep Ground Temperature {C}
  19.633;                                 !- December Deep Ground Temperature {C}

OS:Site:WaterMainsTemperature,
  {04f5e242-9ab2-4a24-8a38-d1f2a6e892d6}, !- Handle
  Correlation,                            !- Calculation Method
  ,                                       !- Temperature Schedule Name
  9.69,                                   !- Annual Average Outdoor Air Temperature {C}
  28.1;                                   !- Maximum Difference In Monthly Average Outdoor Air Temperatures {deltaC}

OS:SizingPeriod:DesignDay,
  {89dc6a6b-3e55-402e-82a4-1b2f634417c6}, !- Handle
  Sizing Period Design Day 1,             !- Name
  -20.6,                                  !- Maximum Dry-Bulb Temperature {C}
  0,                                      !- Daily Dry-Bulb Temperature Range {deltaC}
  99063,                                  !- Barometric Pressure {Pa}
  4.9,                                    !- Wind Speed {m/s}
  270,                                    !- Wind Direction {deg}
  0,                                      !- Sky Clearness
  No,                                     !- Rain Indicator
  No,                                     !- Snow Indicator
  21,                                     !- Day of Month
  1,                                      !- Month
  WinterDesignDay,                        !- Day Type
  No,                                     !- Daylight Saving Time Indicator
  WetBulb,                                !- Humidity Condition Type
  ,                                       !- Humidity Condition Day Schedule Name
  -20.6,                                  !- Wetbulb or DewPoint at Maximum Dry-Bulb {C}
  ,                                       !- Humidity Ratio at Maximum Dry-Bulb {kgWater/kgDryAir}
  ,                                       !- Enthalpy at Maximum Dry-Bulb {J/kg}
  ;                                       !- Dry-Bulb Temperature Range Modifier Type

OS:SizingPeriod:DesignDay,
  {55887d2e-a62c-4105-858b-ced02111be55}, !- Handle
  Sizing Period Design Day 2,             !- Name
  33.2,                                   !- Maximum Dry-Bulb Temperature {C}
  10.7,                                   !- Daily Dry-Bulb Temperature Range {deltaC}
  99063,                                  !- Barometric Pressure {Pa}
  5.3,                                    !- Wind Speed {m/s}
  230,                                    !- Wind Direction {deg}
  1,                                      !- Sky Clearness
  No,                                     !- Rain Indicator
  No,                                     !- Snow Indicator
  21,                                     !- Day of Month
  7,                                      !- Month
  SummerDesignDay,                        !- Day Type
  No,                                     !- Daylight Saving Time Indicator
  WetBulb,                                !- Humidity Condition Type
  ,                                       !- Humidity Condition Day Schedule Name
  23.8,                                   !- Wetbulb or DewPoint at Maximum Dry-Bulb {C}
  ,                                       !- Humidity Ratio at Maximum Dry-Bulb {kgWater/kgDryAir}
  ,                                       !- Enthalpy at Maximum Dry-Bulb {J/kg}
  ;                                       !- Dry-Bulb Temperature Range Modifier Type

OS:ScheduleTypeLimits,
  {6f6cb7eb-ad23-4463-b7cf-1db82b97eca8}, !- Handle
  Temperature,                            !- Name
  -60,                                    !- Lower Limit Value
  200,                                    !- Upper Limit Value
  CONTINUOUS,                             !- Numeric Type
  Temperature;                            !- Unit Type

OS:DefaultScheduleSet,
  {cd6e9a80-e99b-4328-ae87-6021b4b2ddbf}, !- Handle
  Default Schedules,                      !- Name
  ,                                       !- Hours of Operation Schedule Name
  {a7a2233a-49ae-47ef-a767-1cada0f0e890}, !- Number of People Schedule Name
  {23a3cb97-2616-410c-930b-8b728fd36c60}, !- People Activity Level Schedule Name
  {3ce0622a-b586-406e-b428-d6b76770c8c9}, !- Lighting Schedule Name
  {3a5b4fd5-6020-4d01-a778-306e262fa27f}, !- Electric Equipment Schedule Name
  {29c8b61f-2a4e-4651-a888-37ec3559e9e6}, !- Gas Equipment Schedule Name
  {959ced3e-0342-493f-9643-baca6b19c974}, !- Hot Water Equipment Schedule Name
  {81f2145a-f2f9-40ca-83ef-16078b8f2f0f}, !- Infiltration Schedule Name
  ,                                       !- Steam Equipment Schedule Name
  ;                                       !- Other Equipment Schedule Name

OS:Schedule:Ruleset,
  {a7a2233a-49ae-47ef-a767-1cada0f0e890}, !- Handle
  Medium Office Number of People Schedule, !- Name
  {99dc736a-e838-49f6-a80f-2b3700d12404}, !- Schedule Type Limits Name
  {caea153f-95dc-4a3d-aec8-05dd5e9056ed}, !- Default Day Schedule Name
  {cbfbdcb7-a05c-4664-9259-abe9d069b5fb}; !- Summer Design Day Schedule Name

OS:Schedule:Day,
  {caea153f-95dc-4a3d-aec8-05dd5e9056ed}, !- Handle
  Medium Office Number of People All Other Days Schedule, !- Name
  {99dc736a-e838-49f6-a80f-2b3700d12404}, !- Schedule Type Limits Name
  ,                                       !- Interpolate to Timestep
  24,                                     !- Hour 1
  0,                                      !- Minute 1
  0;                                      !- Value Until Time 1

OS:Schedule:Day,
  {455cd292-8d2b-40e5-b9b4-34c864e484cd}, !- Handle
  Medium Office Number of People Summer Design Day Schedule, !- Name
  ,                                       !- Schedule Type Limits Name
  ,                                       !- Interpolate to Timestep
  6,                                      !- Hour 1
  0,                                      !- Minute 1
  0,                                      !- Value Until Time 1
  22,                                     !- Hour 2
  0,                                      !- Minute 2
  1,                                      !- Value Until Time 2
  24,                                     !- Hour 3
  0,                                      !- Minute 3
  0.05;                                   !- Value Until Time 3

OS:Schedule:Day,
  {cbfbdcb7-a05c-4664-9259-abe9d069b5fb}, !- Handle
  Medium Office Number of People Summer Design Day Schedule 1, !- Name
  {99dc736a-e838-49f6-a80f-2b3700d12404}, !- Schedule Type Limits Name
  ,                                       !- Interpolate to Timestep
  6,                                      !- Hour 1
  0,                                      !- Minute 1
  0,                                      !- Value Until Time 1
  22,                                     !- Hour 2
  0,                                      !- Minute 2
  1,                                      !- Value Until Time 2
  24,                                     !- Hour 3
  0,                                      !- Minute 3
  0.05;                                   !- Value Until Time 3

OS:Schedule:Rule,
  {7f8a9f60-fb9b-4058-81b0-3aab02502342}, !- Handle
  Medium Office Number of People Schedule Weekdays Rule, !- Name
  {a7a2233a-49ae-47ef-a767-1cada0f0e890}, !- Schedule Ruleset Name
  1,                                      !- Rule Order
  {0d8624e1-7840-4160-8031-33e3b4ca90d2}, !- Day Schedule Name
  ,                                       !- Apply Sunday
  Yes,                                    !- Apply Monday
  Yes,                                    !- Apply Tuesday
  Yes,                                    !- Apply Wednesday
  Yes,                                    !- Apply Thursday
  Yes;                                    !- Apply Friday

OS:Schedule:Day,
  {0d8624e1-7840-4160-8031-33e3b4ca90d2}, !- Handle
  Medium Office Number of People Weekdays Schedule, !- Name
  {99dc736a-e838-49f6-a80f-2b3700d12404}, !- Schedule Type Limits Name
  ,                                       !- Interpolate to Timestep
  6,                                      !- Hour 1
  0,                                      !- Minute 1
  0,                                      !- Value Until Time 1
  7,                                      !- Hour 2
  0,                                      !- Minute 2
  0.1,                                    !- Value Until Time 2
  8,                                      !- Hour 3
  0,                                      !- Minute 3
  0.2,                                    !- Value Until Time 3
  12,                                     !- Hour 4
  0,                                      !- Minute 4
  0.95,                                   !- Value Until Time 4
  13,                                     !- Hour 5
  0,                                      !- Minute 5
  0.5,                                    !- Value Until Time 5
  17,                                     !- Hour 6
  0,                                      !- Minute 6
  0.95,                                   !- Value Until Time 6
  18,                                     !- Hour 7
  0,                                      !- Minute 7
  0.7,                                    !- Value Until Time 7
  20,                                     !- Hour 8
  0,                                      !- Minute 8
  0.4,                                    !- Value Until Time 8
  22,                                     !- Hour 9
  0,                                      !- Minute 9
  0.1,                                    !- Value Until Time 9
  24,                                     !- Hour 10
  0,                                      !- Minute 10
  0.05;                                   !- Value Until Time 10

OS:Schedule:Rule,
  {680d2c99-6837-4c1b-bf40-08c995aee8c2}, !- Handle
  Medium Office Number of People Schedule Saturday Rule, !- Name
  {a7a2233a-49ae-47ef-a767-1cada0f0e890}, !- Schedule Ruleset Name
  0,                                      !- Rule Order
  {ab80dec2-06e8-4e65-9255-f971dab9afba}, !- Day Schedule Name
  ,                                       !- Apply Sunday
  ,                                       !- Apply Monday
  ,                                       !- Apply Tuesday
  ,                                       !- Apply Wednesday
  ,                                       !- Apply Thursday
  ,                                       !- Apply Friday
  Yes;                                    !- Apply Saturday

OS:Schedule:Day,
  {ab80dec2-06e8-4e65-9255-f971dab9afba}, !- Handle
  Medium Office Number of People Saturday Schedule, !- Name
  {99dc736a-e838-49f6-a80f-2b3700d12404}, !- Schedule Type Limits Name
  ,                                       !- Interpolate to Timestep
  6,                                      !- Hour 1
  0,                                      !- Minute 1
  0,                                      !- Value Until Time 1
  8,                                      !- Hour 2
  0,                                      !- Minute 2
  0.1,                                    !- Value Until Time 2
  14,                                     !- Hour 3
  0,                                      !- Minute 3
  0.5,                                    !- Value Until Time 3
  17,                                     !- Hour 4
  0,                                      !- Minute 4
  0.1,                                    !- Value Until Time 4
  24,                                     !- Hour 5
  0,                                      !- Minute 5
  0;                                      !- Value Until Time 5

OS:ScheduleTypeLimits,
  {99dc736a-e838-49f6-a80f-2b3700d12404}, !- Handle
  Fractional,                             !- Name
  0,                                      !- Lower Limit Value
  1,                                      !- Upper Limit Value
  Continuous;                             !- Numeric Type

OS:Schedule:Ruleset,
  {23a3cb97-2616-410c-930b-8b728fd36c60}, !- Handle
  Medium Office People Activity Level Schedule, !- Name
  {d3f14511-f61c-4035-be0d-fe5bd81c1673}, !- Schedule Type Limits Name
  {1428ebc2-3cf9-4d9a-ad70-b3f5ac956854}; !- Default Day Schedule Name

OS:Schedule:Day,
  {1428ebc2-3cf9-4d9a-ad70-b3f5ac956854}, !- Handle
  Medium Office People Activity Level All Days Schedule, !- Name
  {d3f14511-f61c-4035-be0d-fe5bd81c1673}, !- Schedule Type Limits Name
  ,                                       !- Interpolate to Timestep
  24,                                     !- Hour 1
  0,                                      !- Minute 1
  120;                                    !- Value Until Time 1

OS:ScheduleTypeLimits,
  {d3f14511-f61c-4035-be0d-fe5bd81c1673}, !- Handle
  ActivityLevel,                          !- Name
  0,                                      !- Lower Limit Value
  ,                                       !- Upper Limit Value
  Continuous,                             !- Numeric Type
  ActivityLevel;                          !- Unit Type

OS:Schedule:Ruleset,
  {3ce0622a-b586-406e-b428-d6b76770c8c9}, !- Handle
  Medium Office Lighting Schedule,        !- Name
  {99dc736a-e838-49f6-a80f-2b3700d12404}, !- Schedule Type Limits Name
  {5f158b0d-5000-48ea-b92a-20369cca4773}, !- Default Day Schedule Name
  {8b8685a6-cc72-4461-8a00-05e45d72df75}, !- Summer Design Day Schedule Name
  {183c1bdf-a703-4646-99e0-4633f1cc6c79}; !- Winter Design Day Schedule Name

OS:Schedule:Day,
  {5f158b0d-5000-48ea-b92a-20369cca4773}, !- Handle
  Medium Office Lighting All Other Days Schedule, !- Name
  {99dc736a-e838-49f6-a80f-2b3700d12404}, !- Schedule Type Limits Name
  ,                                       !- Interpolate to Timestep
  24,                                     !- Hour 1
  0,                                      !- Minute 1
  0.05;                                   !- Value Until Time 1

OS:Schedule:Day,
  {b1faabf7-28bf-406f-a4f4-6fcc6a677c34}, !- Handle
  Medium Office Lighting Summer Design Day Schedule, !- Name
  ,                                       !- Schedule Type Limits Name
  ,                                       !- Interpolate to Timestep
  6,                                      !- Hour 1
  0,                                      !- Minute 1
  1,                                      !- Value Until Time 1
  24,                                     !- Hour 2
  0,                                      !- Minute 2
  0;                                      !- Value Until Time 2

OS:Schedule:Day,
  {8b8685a6-cc72-4461-8a00-05e45d72df75}, !- Handle
  Medium Office Lighting Summer Design Day Schedule 1, !- Name
  {99dc736a-e838-49f6-a80f-2b3700d12404}, !- Schedule Type Limits Name
  ,                                       !- Interpolate to Timestep
  6,                                      !- Hour 1
  0,                                      !- Minute 1
  1,                                      !- Value Until Time 1
  24,                                     !- Hour 2
  0,                                      !- Minute 2
  0;                                      !- Value Until Time 2

OS:Schedule:Day,
  {fb0e5c66-e4a6-4756-82a6-4bb3a4040828}, !- Handle
  Medium Office Lighting Winter Design Day Schedule, !- Name
  ,                                       !- Schedule Type Limits Name
  ,                                       !- Interpolate to Timestep
  24,                                     !- Hour 1
  0,                                      !- Minute 1
  0;                                      !- Value Until Time 1

OS:Schedule:Day,
  {183c1bdf-a703-4646-99e0-4633f1cc6c79}, !- Handle
  Medium Office Lighting Winter Design Day Schedule 1, !- Name
  {99dc736a-e838-49f6-a80f-2b3700d12404}, !- Schedule Type Limits Name
  ,                                       !- Interpolate to Timestep
  24,                                     !- Hour 1
  0,                                      !- Minute 1
  0;                                      !- Value Until Time 1

OS:Schedule:Rule,
  {e211b5f4-8a58-4293-82e3-479f6e832ca0}, !- Handle
  Medium Office Lighting Schedule Weekdays Rule, !- Name
  {3ce0622a-b586-406e-b428-d6b76770c8c9}, !- Schedule Ruleset Name
  1,                                      !- Rule Order
  {af36c5e7-2266-46cc-a6e2-1a6e2af1c473}, !- Day Schedule Name
  ,                                       !- Apply Sunday
  Yes,                                    !- Apply Monday
  Yes,                                    !- Apply Tuesday
  Yes,                                    !- Apply Wednesday
  Yes,                                    !- Apply Thursday
  Yes;                                    !- Apply Friday

OS:Schedule:Day,
  {af36c5e7-2266-46cc-a6e2-1a6e2af1c473}, !- Handle
  Medium Office Lighting Weekdays Schedule, !- Name
  {99dc736a-e838-49f6-a80f-2b3700d12404}, !- Schedule Type Limits Name
  ,                                       !- Interpolate to Timestep
  5,                                      !- Hour 1
  0,                                      !- Minute 1
  0.05,                                   !- Value Until Time 1
  7,                                      !- Hour 2
  0,                                      !- Minute 2
  0.1,                                    !- Value Until Time 2
  8,                                      !- Hour 3
  0,                                      !- Minute 3
  0.3,                                    !- Value Until Time 3
  17,                                     !- Hour 4
  0,                                      !- Minute 4
  0.9,                                    !- Value Until Time 4
  18,                                     !- Hour 5
  0,                                      !- Minute 5
  0.7,                                    !- Value Until Time 5
  20,                                     !- Hour 6
  0,                                      !- Minute 6
  0.5,                                    !- Value Until Time 6
  22,                                     !- Hour 7
  0,                                      !- Minute 7
  0.3,                                    !- Value Until Time 7
  23,                                     !- Hour 8
  0,                                      !- Minute 8
  0.1,                                    !- Value Until Time 8
  24,                                     !- Hour 9
  0,                                      !- Minute 9
  0.05;                                   !- Value Until Time 9

OS:Schedule:Rule,
  {e05c7e7f-d9c7-4310-8d79-13a4de243711}, !- Handle
  Medium Office Lighting Schedule Saturday Rule, !- Name
  {3ce0622a-b586-406e-b428-d6b76770c8c9}, !- Schedule Ruleset Name
  0,                                      !- Rule Order
  {e84ee1c4-f96e-4329-9ed8-213d354258a8}, !- Day Schedule Name
  ,                                       !- Apply Sunday
  ,                                       !- Apply Monday
  ,                                       !- Apply Tuesday
  ,                                       !- Apply Wednesday
  ,                                       !- Apply Thursday
  ,                                       !- Apply Friday
  Yes;                                    !- Apply Saturday

OS:Schedule:Day,
  {e84ee1c4-f96e-4329-9ed8-213d354258a8}, !- Handle
  Medium Office Lighting Saturday Schedule, !- Name
  {99dc736a-e838-49f6-a80f-2b3700d12404}, !- Schedule Type Limits Name
  ,                                       !- Interpolate to Timestep
  6,                                      !- Hour 1
  0,                                      !- Minute 1
  0.05,                                   !- Value Until Time 1
  8,                                      !- Hour 2
  0,                                      !- Minute 2
  0.1,                                    !- Value Until Time 2
  14,                                     !- Hour 3
  0,                                      !- Minute 3
  0.5,                                    !- Value Until Time 3
  17,                                     !- Hour 4
  0,                                      !- Minute 4
  0.15,                                   !- Value Until Time 4
  24,                                     !- Hour 5
  0,                                      !- Minute 5
  0.05;                                   !- Value Until Time 5

OS:Schedule:Ruleset,
  {3a5b4fd5-6020-4d01-a778-306e262fa27f}, !- Handle
  Medium Office Electric Equipment Schedule, !- Name
  {99dc736a-e838-49f6-a80f-2b3700d12404}, !- Schedule Type Limits Name
  {6e2ff4c1-e272-4afb-8aac-3b93b1ea045e}, !- Default Day Schedule Name
  {be74c020-b60d-40ff-a587-8dda54f6cb68}, !- Summer Design Day Schedule Name
  {145d1195-13b2-4419-9858-b05693ac438b}; !- Winter Design Day Schedule Name

OS:Schedule:Day,
  {6e2ff4c1-e272-4afb-8aac-3b93b1ea045e}, !- Handle
  Medium Office Electric Equipment All Other Days Schedule, !- Name
  {99dc736a-e838-49f6-a80f-2b3700d12404}, !- Schedule Type Limits Name
  ,                                       !- Interpolate to Timestep
  24,                                     !- Hour 1
  0,                                      !- Minute 1
  0.3;                                    !- Value Until Time 1

OS:Schedule:Day,
  {abfbdbaa-8991-47be-93c4-807d96ef6c52}, !- Handle
  Medium Office Electric Equipment Summer Design Day Schedule, !- Name
  ,                                       !- Schedule Type Limits Name
  ,                                       !- Interpolate to Timestep
  6,                                      !- Hour 1
  0,                                      !- Minute 1
  1,                                      !- Value Until Time 1
  24,                                     !- Hour 2
  0,                                      !- Minute 2
  0;                                      !- Value Until Time 2

OS:Schedule:Day,
  {be74c020-b60d-40ff-a587-8dda54f6cb68}, !- Handle
  Medium Office Electric Equipment Summer Design Day Schedule 1, !- Name
  {99dc736a-e838-49f6-a80f-2b3700d12404}, !- Schedule Type Limits Name
  ,                                       !- Interpolate to Timestep
  6,                                      !- Hour 1
  0,                                      !- Minute 1
  1,                                      !- Value Until Time 1
  24,                                     !- Hour 2
  0,                                      !- Minute 2
  0;                                      !- Value Until Time 2

OS:Schedule:Day,
  {70bde478-255e-41aa-9964-be49657292b1}, !- Handle
  Medium Office Electric Equipment Winter Design Day Schedule, !- Name
  ,                                       !- Schedule Type Limits Name
  ,                                       !- Interpolate to Timestep
  24,                                     !- Hour 1
  0,                                      !- Minute 1
  0;                                      !- Value Until Time 1

OS:Schedule:Day,
  {145d1195-13b2-4419-9858-b05693ac438b}, !- Handle
  Medium Office Electric Equipment Winter Design Day Schedule 1, !- Name
  {99dc736a-e838-49f6-a80f-2b3700d12404}, !- Schedule Type Limits Name
  ,                                       !- Interpolate to Timestep
  24,                                     !- Hour 1
  0,                                      !- Minute 1
  0;                                      !- Value Until Time 1

OS:Schedule:Rule,
  {67294926-3ec7-4b45-9e20-905ac5aea4a5}, !- Handle
  Medium Office Electric Equipment Schedule Weekdays Rule, !- Name
  {3a5b4fd5-6020-4d01-a778-306e262fa27f}, !- Schedule Ruleset Name
  1,                                      !- Rule Order
  {dc4a54e2-12bc-4854-9e82-7d46111a9687}, !- Day Schedule Name
  ,                                       !- Apply Sunday
  Yes,                                    !- Apply Monday
  Yes,                                    !- Apply Tuesday
  Yes,                                    !- Apply Wednesday
  Yes,                                    !- Apply Thursday
  Yes;                                    !- Apply Friday

OS:Schedule:Day,
  {dc4a54e2-12bc-4854-9e82-7d46111a9687}, !- Handle
  Medium Office Electric Equipment Weekdays Schedule, !- Name
  {99dc736a-e838-49f6-a80f-2b3700d12404}, !- Schedule Type Limits Name
  ,                                       !- Interpolate to Timestep
  8,                                      !- Hour 1